@<TRIPOS>MOLECULE
8EF6.R
41 45 1 0 0 
SMALL
USER_CHARGES


@<TRIPOS>ATOM
  1 C1     138.1430   123.0590   135.0800 C.ar  1 MOI  -0.1500 
  2 H1     138.3472   122.0773   134.7299 H     1 MOI   0.1500 
  3 C2     139.5780   124.0890   133.2110 C.3   1 MOI  -0.0165 
  4 H2     139.0458   123.6119   132.3933 H     1 MOI   0.0800 
  5 H3     140.4063   123.4430   133.4689 H     1 MOI   0.0800 
  6 C3     138.6800   124.1670   134.4200 C.ar  1 MOI  -0.1435 
  7 C4     138.3530   125.4170   134.9160 C.ar  1 MOI  -0.1435 
  8 C5     138.8150   126.7430   134.3880 C.3   1 MOI   0.1435 
  9 C6     140.2520   126.5740   133.8730 C.3   1 MOI   0.0582 
 10 H4     140.5489   127.5013   133.3980 H     1 MOI   0.0800 
 11 C7     137.9090   127.2890   133.2550 C.3   1 MOI  -0.1600 
 12 H5     138.1662   128.3344   133.0717 H     1 MOI   0.0800 
 13 H6     136.8611   127.2523   133.5548 H     1 MOI   0.0800 
 14 C8     138.0670   126.5430   131.9130 C.3   1 MOI   0.3430 
 15 H7     137.6544   127.1618   131.1206 H     1 MOI   0.0800 
 16 H8     137.3998   125.6893   131.9406 H     1 MOI   0.0800 
 17 C9     139.5590   125.4040   130.3590 C.3   1 MOI   0.2630 
 18 H9     139.1406   125.9601   129.5245 H     1 MOI   0.0800 
 19 H10    139.0489   124.4483   130.3464 H     1 MOI   0.0800 
 20 H11    140.5803   125.1948   130.0617 H     1 MOI   0.0800 
 21 C10    137.3170   123.2390   136.2100 C.ar  1 MOI  -0.1500 
 22 H12    136.9104   122.3942   136.7041 H     1 MOI   0.1500 
 23 C11    137.0180   124.5220   136.6930 C.ar  1 MOI   0.0825 
 24 C12    137.5580   125.5980   136.0220 C.ar  1 MOI   0.0825 
 25 C13    138.5920   127.5400   135.6890 C.3   1 MOI   0.2000 
 26 H13    138.3210   128.5673   135.4428 H     1 MOI   0.0800 
 27 C14    139.8290   127.6260   136.6290 C.3   1 MOI   0.3382 
 28 H14    140.1179   128.6689   136.6635 H     1 MOI   0.0800 
 29 C15    141.0700   126.8570   136.2290 C.2   1 MOI  -0.2882 
 30 H15    141.7986   126.7167   136.9769 H     1 MOI   0.1500 
 31 C16    141.2580   126.3710   134.9850 C.2   1 MOI  -0.2882 
 32 H16    142.1401   125.8441   134.7332 H     1 MOI   0.1500 
 33 C17    140.1670   125.4760   132.7530 C.3   1 MOI   0.4230 
 34 H17    141.1890   125.2746   132.4537 H     1 MOI   0.0800 
 35 N1     139.4480   126.1200   131.6250 N.4   1 MOI  -0.9590 
 36 H18    139.9186   127.0085   131.4285 H     1 MOI   0.4500 
 37 O1     136.2230   124.6870   137.7790 O.3   1 MOI  -0.5325 
 38 H19    136.1158   125.6481   137.9181 H     1 MOI   0.4500 
 39 O2     139.4500   127.2900   137.9630 O.3   1 MOI  -0.6800 
 40 H20    138.9868   126.4346   137.9373 H     1 MOI   0.4000 
 41 O3     137.4100   126.9260   136.3220 O.3   1 MOI  -0.3625 
@<TRIPOS>BOND
  1   1   2  1   
  2   1   6  ar  
  3   1  21  ar  
  4   3   4  1   
  5   3   5  1   
  6   3   6  1   
  7   3  33  1   
  8   6   7  ar  
  9   7   8  1   
 10   7  24  ar  
 11   8   9  1   
 12   8  11  1   
 13   8  25  1   
 14   9  10  1   
 15   9  31  1   
 16   9  33  1   
 17  11  12  1   
 18  11  13  1   
 19  11  14  1   
 20  14  15  1   
 21  14  16  1   
 22  14  35  1   
 23  17  18  1   
 24  17  19  1   
 25  17  20  1   
 26  17  35  1   
 27  21  22  1   
 28  21  23  ar  
 29  23  24  ar  
 30  23  37  1   
 31  24  41  1   
 32  25  26  1   
 33  25  27  1   
 34  25  41  1   
 35  27  28  1   
 36  27  29  1   
 37  27  39  1   
 38  29  30  1   
 39  29  31  2   
 40  31  32  1   
 41  33  34  1   
 42  33  35  1   
 43  35  36  1   
 44  37  38  1   
 45  39  40  1   
@<TRIPOS>SUBSTRUCTURE
  1 MOI   7 GROUP 4 R **** 0

# MOE 2022.02 (io_trps.svl 2020.11)
