@<TRIPOS>MOLECULE
7RFW.A Assembly 1 BIOMT operation 1
67 69 1 0 0 
SMALL
USER_CHARGES


@<TRIPOS>ATOM
  1 C8       6.5780     1.4300    18.1500 C.2   1 Q4WI   0.5690 
  2 C3       7.8530    -2.9870    19.9280 C.1   1 Q4WI   0.3571 
  3 C1       9.4180    -0.5490    21.7920 C.2   1 Q4WI   0.5690 
  4 C13     10.4330     2.2610    22.0540 C.2   1 Q4WI   0.5690 
  5 C21     12.4400     4.9740    22.6730 C.2   1 Q4WI   0.5690 
  6 C6       5.8180     0.9830    20.3780 C.3   1 Q4WI  -0.1600 
  7 C7       5.2460     2.2960    19.8820 C.3   1 Q4WI   0.1401 
  8 C10     11.5240     1.0050    23.9810 C.3   1 Q4WI   0.2351 
  9 C5       6.9860     0.7100    19.4210 C.3   1 Q4WI  -0.0190 
 10 C9      10.8570    -0.1550    21.9220 C.3   1 Q4WI   0.3761 
 11 C11     12.0340    -0.3910    24.0260 C.3   1 Q4WI  -0.1950 
 12 C12     11.6200    -1.1070    22.7860 C.3   1 Q4WI  -0.1950 
 13 C18     13.1020    -0.9780    23.1170 C.3   1 Q4WI  -0.1900 
 14 C19     13.9230    -0.0590    22.2670 C.3   1 Q4WI  -0.1450 
 15 C20     13.8040    -2.1910    23.6050 C.3   1 Q4WI  -0.1450 
 16 C16      9.2070     5.2800    23.9920 C.3   1 Q4WI  -0.2400 
 17 C17      8.2090     3.0400    23.7360 C.3   1 Q4WI  -0.2400 
 18 C23      8.3820     4.5810    21.8180 C.3   1 Q4WI  -0.2400 
 19 C4       7.1730    -0.7570    19.0900 C.3   1 Q4WI  -0.1600 
 20 C2       7.7540    -1.5230    20.2630 C.3   1 Q4WI   0.4201 
 21 C14     10.4610     3.5250    22.8670 C.3   1 Q4WI   0.2811 
 22 C22     13.2480     5.7900    21.7080 C.3   1 Q4WI   1.0810 
 23 C15      9.0680     4.0900    23.0720 C.3   1 Q4WI   0.0000 
 24 N5       6.7550    -3.6490    19.7720 N.1   1 Q4WI  -0.5571 
 25 N2       5.4890     2.2410    18.4590 N.am  1 Q4WI  -0.7301 
 26 N3      10.8500     1.1070    22.6730 N.am  1 Q4WI  -0.6602 
 27 N1       9.1130    -1.1080    20.5680 N.am  1 Q4WI  -0.7301 
 28 N4      11.3220     4.3990    22.1040 N.am  1 Q4WI  -0.7301 
 29 O1       7.1580     1.3240    17.0780 O.2   1 Q4WI  -0.5700 
 30 O2       8.6370    -0.3740    22.7200 O.2   1 Q4WI  -0.5700 
 31 O3      10.0400     2.2690    20.8990 O.2   1 Q4WI  -0.5700 
 32 O4      12.7570     4.9150    23.8540 O.2   1 Q4WI  -0.5700 
 33 F1      13.2700     5.3740    20.4210 F     1 Q4WI  -0.3400 
 34 F2      14.5530     5.7550    22.0670 F     1 Q4WI  -0.3400 
 35 F3      12.8110     7.0790    21.6730 F     1 Q4WI  -0.3400 
 36 H4       6.1513     1.0552    21.4146 H     1 Q4WI   0.0800 
 37 H5       5.0537     0.2271    20.2634 H     1 Q4WI   0.0800 
 38 H6       4.1816     2.3768    20.1081 H     1 Q4WI   0.0800 
 39 H7       5.7917     3.1391    20.3157 H     1 Q4WI   0.0800 
 40 H8      10.8270     1.1762    24.7929 H     1 Q4WI   0.0800 
 41 H9      12.3413     1.7079    24.0767 H     1 Q4WI   0.0800 
 42 H10      7.9015     1.1736    19.7893 H     1 Q4WI   0.0800 
 43 H11     11.3245    -0.0612    20.9556 H     1 Q4WI   0.0800 
 44 H12     11.8387    -0.8975    24.9583 H     1 Q4WI   0.1000 
 45 H13     11.1706    -2.0839    22.9076 H     1 Q4WI   0.1000 
 46 H14     14.2984    -0.5726    21.3922 H     1 Q4WI   0.0800 
 47 H15     14.7757     0.3050    22.8168 H     1 Q4WI   0.0800 
 48 H16     13.3987     0.8167    21.9175 H     1 Q4WI   0.0800 
 49 H17     14.3191    -2.6953    22.7999 H     1 Q4WI   0.0800 
 50 H18     13.1212    -2.9067    24.0373 H     1 Q4WI   0.0800 
 51 H19     14.5437    -1.9446    24.3544 H     1 Q4WI   0.0800 
 52 H20      9.7834     6.0756    23.5169 H     1 Q4WI   0.0800 
 53 H21      9.7008     4.9938    24.9219 H     1 Q4WI   0.0800 
 54 H22      8.2234     5.6823    24.2400 H     1 Q4WI   0.0800 
 55 H23      8.0067     2.2097    23.0587 H     1 Q4WI   0.0800 
 56 H24      7.2501     3.4710    24.0264 H     1 Q4WI   0.0800 
 57 H25      8.6945     2.6520    24.6335 H     1 Q4WI   0.0800 
 58 H26      8.1781     3.7640    21.1322 H     1 Q4WI   0.0800 
 59 H27      8.9650     5.3519    21.3205 H     1 Q4WI   0.0800 
 60 H28      7.4192     5.0270    22.0713 H     1 Q4WI   0.0800 
 61 H29      7.8643    -0.8477    18.2503 H     1 Q4WI   0.0800 
 62 H30      6.2177    -1.1887    18.7867 H     1 Q4WI   0.0800 
 63 H31      7.1094    -1.4161    21.1267 H     1 Q4WI   0.0800 
 64 H32     10.8894     3.3435    23.8490 H     1 Q4WI   0.0800 
 65 H33      5.2292     2.9864    17.8130 H     1 Q4WI   0.3700 
 66 H34      9.8522    -1.2807    19.8869 H     1 Q4WI   0.3700 
 67 H35     11.0422     4.6261    21.1439 H     1 Q4WI   0.3700 
@<TRIPOS>BOND
  1   1   9  1   
  2   1  25  am  
  3   1  29  2   
  4   2  20  1   
  5   2  24  3   
  6   3  10  1   
  7   3  27  am  
  8   3  30  2   
  9   4  21  1   
 10   4  26  am  
 11   4  31  2   
 12   5  22  1   
 13   5  28  am  
 14   5  32  2   
 15   6   7  1   
 16   6   9  1   
 17   6  36  1   
 18   6  37  1   
 19   7  25  1   
 20   7  38  1   
 21   7  39  1   
 22   8  11  1   
 23   8  26  1   
 24   8  40  1   
 25   8  41  1   
 26   9  19  1   
 27   9  42  1   
 28  10  12  1   
 29  10  26  1   
 30  10  43  1   
 31  11  12  1   
 32  11  13  1   
 33  11  44  1   
 34  12  13  1   
 35  12  45  1   
 36  13  14  1   
 37  13  15  1   
 38  14  46  1   
 39  14  47  1   
 40  14  48  1   
 41  15  49  1   
 42  15  50  1   
 43  15  51  1   
 44  16  23  1   
 45  16  52  1   
 46  16  53  1   
 47  16  54  1   
 48  17  23  1   
 49  17  55  1   
 50  17  56  1   
 51  17  57  1   
 52  18  23  1   
 53  18  58  1   
 54  18  59  1   
 55  18  60  1   
 56  19  20  1   
 57  19  61  1   
 58  19  62  1   
 59  20  27  1   
 60  20  63  1   
 61  21  23  1   
 62  21  28  1   
 63  21  64  1   
 64  22  33  1   
 65  22  34  1   
 66  22  35  1   
 67  25  65  1   
 68  27  66  1   
 69  28  67  1   
@<TRIPOS>SUBSTRUCTURE
  1 Q4WI  31 GROUP 4 **** **** 0

# MOE 2022.02 (io_trps.svl 2020.11)
