5MZP.A
 OpenBabel04282311323D

 23 24  0  0  1  0  0  0  0  0999 V2000
   -7.2010   -7.8080   51.9640 N   0  0  0  0  0  0  0  0  0  0  0  0
   -7.4320   -6.8010   52.9380 C   0  0  0  0  0  0  0  0  0  0  0  0
   -6.5240   -7.4840   50.7520 C   0  0  0  0  0  0  0  0  0  0  0  0
   -7.6390   -9.1180   52.1930 C   0  0  0  0  0  0  0  0  0  0  0  0
   -8.1120   -7.1250   54.1600 N   0  0  0  0  0  0  0  0  0  0  0  0
   -7.0520   -5.6650   52.7420 O   0  0  0  0  0  0  0  0  0  0  0  0
   -8.3400   -6.1100   55.1330 C   0  0  0  0  0  0  0  0  0  0  0  0
   -8.5690   -8.4870   54.4050 C   0  0  1  0  0  0  0  0  0  0  0  0
   -8.3540   -9.4610   53.4780 C   0  0  1  0  0  0  0  0  0  0  0  0
   -9.2290   -9.0460   55.4670 N   0  0  0  0  0  0  0  0  0  0  0  0
   -7.4360   -9.9710   51.3510 O   0  0  0  0  0  0  0  0  0  0  0  0
   -8.8850  -10.6280   53.9730 N   0  0  0  0  0  0  0  0  0  0  0  0
   -9.4190  -10.3620   55.1960 C   0  0  0  0  0  0  0  0  0  0  0  0
   -8.8900  -11.9040   53.3380 C   0  0  0  0  0  0  0  0  0  0  0  0
   -6.3490   -8.2490   50.0100 H   0  0  0  0  0  0  0  0  0  0  0  0
   -6.1860   -6.4730   50.5760 H   0  0  0  0  0  0  0  0  0  0  0  0
   -7.9310   -5.1660   54.7760 H   0  0  0  0  0  0  0  0  0  0  0  0
   -7.8520   -6.3870   56.0680 H   0  0  0  0  0  0  0  0  0  0  0  0
   -9.4120   -6.0020   55.3010 H   0  0  0  0  0  0  0  0  0  0  0  0
   -7.3990   -9.6970   53.9480 H   0  0  0  0  0  0  0  0  0  0  0  0
   -9.9090  -11.0770   55.8400 H   0  0  0  0  0  0  0  0  0  0  0  0
   -9.3410  -12.7510   53.8320 H   0  0  0  0  0  0  0  0  0  0  0  0
   -8.4420  -12.0230   52.3630 H   0  0  0  0  0  0  0  0  0  0  0  0
  1  2  1  0  0  0  0
  1  3  2  0  0  0  0
  1  4  1  0  0  0  0
  2  5  1  0  0  0  0
  2  6  2  0  0  0  0
  3 15  1  0  0  0  0
  3 16  1  0  0  0  0
  4  9  1  0  0  0  0
  4 11  2  0  0  0  0
  5  7  1  0  0  0  0
  5  8  1  0  0  0  0
  7 17  1  0  0  0  0
  7 18  1  0  0  0  0
  7 19  1  0  0  0  0
  8  9  1  1  0  0  0
  8 10  1  0  0  0  0
  9 12  1  0  0  0  0
  9 20  1  1  0  0  0
 10 13  2  0  0  0  0
 12 13  1  0  0  0  0
 12 14  2  0  0  0  0
 13 21  1  0  0  0  0
 14 22  1  0  0  0  0
 14 23  1  0  0  0  0
M  END
$$$$
